1659190546.67816s 1 https://api.dandiarchive.org/api/zarr/b75806f0-9d00-485f-a75b-b98d06cb75f4.zarr/1/0/0/5/4/68
1659190546.668401s 1 https://dandiarchive.s3.amazonaws.com/zarr/b75806f0-9d00-485f-a75b-b98d06cb75f4/1/0/0/5/4/68?versionId=MT3Di8BrMUZ_aK.BAIKxEfuTPNYahoCC
